
FoamFile
{
    format      ascii;
    class       volScalarField;
    location    "0";
    object      T;
}


dimensions      [0 0 0 1 0 0 0];

internalField   uniform 300;

boundaryField
{
    NozzleWall
    {
        type            zeroGradient;
    }
    Output
    {
        type            zeroGradient;
    }
    Input
    {
        type            fixedValue;
        value           uniform 673;
    }
    AmbientSide
    {
        type            inletOutlet;
        inletValue      uniform 300;
        value           uniform 300;
    }
    defaultFaces
    {
        type            zeroGradient;
    }
}



